<?xml version="1.0" encoding="UTF-8"?>

<!-- generated on 2024-02-11 14:27:43 by Eclipse SUMO netedit Version 1.18.0
<configuration xmlns:xsi="http://www.w3.org/2001/XMLSchema-instance" xsi:noNamespaceSchemaLocation="http://sumo.dlr.de/xsd/neteditConfiguration.xsd">

    <input>
        <sumocfg-file value="C:\Users\ornor\Documents\EE Projects\Project A\Transportaion_network_perimeter_control_project\SUMO_files\sim5.sumocfg"/>
        <route-files value="C:\Users\ornor\Documents\EE Projects\Project A\Transportaion_network_perimeter_control_project\SUMO_files\route_file.rou.xml"/>
        <sumo-net-file value="C:\Users\ornor\Documents\EE Projects\Project A\Transportaion_network_perimeter_control_project\SUMO_files\network.net.xml"/>
    </input>

    <output>
        <tls-file value="C:\Users\ornor\Documents\EE Projects\Project A\Transportaion_network_perimeter_control_project\SUMO_files\traffic_lights.tll.xml"/>
        <output-file value="C:\Users\ornor\Documents\EE Projects\Project A\Transportaion_network_perimeter_control_project\SUMO_files\network.net.xml"/>
    </output>

    <processing>
        <geometry.min-radius.fix.railways value="false"/>
        <geometry.max-grade.fix value="false"/>
        <offset.disable-normalization value="true"/>
        <lefthand value="0"/>
    </processing>

    <junctions>
        <no-turnarounds value="true"/>
        <junctions.corner-detail value="5"/>
        <junctions.limit-turn-speed value="5.50"/>
        <rectangular-lane-cut value="0"/>
    </junctions>

    <pedestrian>
        <walkingareas value="0"/>
    </pedestrian>

</configuration>
-->

<net version="1.16" junctionCornerDetail="5" limitTurnSpeed="5.50" xmlns:xsi="http://www.w3.org/2001/XMLSchema-instance" xsi:noNamespaceSchemaLocation="http://sumo.dlr.de/xsd/net_file.xsd">

    <location netOffset="0.00,0.00" convBoundary="-4648.27,-400.00,-3400.00,800.00" origBoundary="-10000000000.00,-10000000000.00,10000000000.00,10000000000.00" projParameter="!"/>

    <type id="edgeType_0"/>

    <edge id=":J0_0" function="internal">
        <lane id=":J0_0_0" index="0" speed="13.89" length="14.40" shape="-4392.80,704.80 -4407.20,704.80"/>
        <lane id=":J0_0_1" index="1" speed="13.89" length="14.40" shape="-4392.80,701.60 -4407.20,701.60"/>
    </edge>
    <edge id=":J0_2" function="internal">
        <lane id=":J0_2_0" index="0" speed="8.67" length="3.71" shape="-4392.80,701.60 -4396.44,700.89"/>
    </edge>
    <edge id=":J0_8" function="internal">
        <lane id=":J0_8_0" index="0" speed="8.67" length="13.14" shape="-4396.44,700.89 -4396.65,700.85 -4399.40,698.60 -4401.05,694.85 -4401.60,689.60"/>
    </edge>
    <edge id=":J0_3" function="internal">
        <lane id=":J0_3_0" index="0" speed="6.51" length="9.03" shape="-4398.40,689.60 -4398.05,692.05 -4397.00,693.80 -4395.25,694.85 -4392.80,695.20"/>
    </edge>
    <edge id=":J0_4" function="internal">
        <lane id=":J0_4_0" index="0" speed="8.67" length="16.85" shape="-4398.40,689.60 -4398.95,694.85 -4400.60,698.60 -4403.35,700.85 -4407.20,701.60"/>
    </edge>
    <edge id=":J0_5" function="internal">
        <lane id=":J0_5_0" index="0" speed="6.51" length="9.03" shape="-4407.20,695.20 -4404.75,694.85 -4403.00,693.80 -4401.95,692.05 -4401.60,689.60"/>
    </edge>
    <edge id=":J0_6" function="internal">
        <lane id=":J0_6_0" index="0" speed="13.89" length="14.40" shape="-4407.20,695.20 -4392.80,695.20"/>
        <lane id=":J0_6_1" index="1" speed="13.89" length="14.40" shape="-4407.20,698.40 -4392.80,698.40"/>
    </edge>
    <edge id=":J1_0" function="internal">
        <lane id=":J1_0_0" index="0" speed="6.51" length="9.03" shape="-3704.80,510.40 -3705.15,507.95 -3706.20,506.20 -3707.95,505.15 -3710.40,504.80"/>
    </edge>
    <edge id=":J1_1" function="internal">
        <lane id=":J1_1_0" index="0" speed="13.89" length="20.80" shape="-3704.80,510.40 -3704.80,489.60"/>
        <lane id=":J1_1_1" index="1" speed="13.89" length="20.80" shape="-3701.60,510.40 -3701.60,489.60"/>
    </edge>
    <edge id=":J1_3" function="internal">
        <lane id=":J1_3_0" index="0" speed="9.26" length="5.01" shape="-3701.60,510.40 -3700.89,505.44"/>
    </edge>
    <edge id=":J1_16" function="internal">
        <lane id=":J1_16_0" index="0" speed="9.26" length="14.34" shape="-3700.89,505.44 -3700.85,505.15 -3698.60,501.40 -3694.85,499.15 -3689.60,498.40"/>
    </edge>
    <edge id=":J1_4" function="internal">
        <lane id=":J1_4_0" index="0" speed="6.51" length="9.03" shape="-3689.60,504.80 -3692.05,505.15 -3693.80,506.20 -3694.85,507.95 -3695.20,510.40"/>
    </edge>
    <edge id=":J1_5" function="internal">
        <lane id=":J1_5_0" index="0" speed="13.89" length="20.80" shape="-3689.60,504.80 -3710.40,504.80"/>
        <lane id=":J1_5_1" index="1" speed="13.89" length="20.80" shape="-3689.60,501.60 -3710.40,501.60"/>
    </edge>
    <edge id=":J1_7" function="internal">
        <lane id=":J1_7_0" index="0" speed="9.26" length="5.01" shape="-3689.60,501.60 -3694.56,500.89"/>
    </edge>
    <edge id=":J1_17" function="internal">
        <lane id=":J1_17_0" index="0" speed="9.26" length="14.34" shape="-3694.56,500.89 -3694.85,500.85 -3698.60,498.60 -3700.85,494.85 -3701.60,489.60"/>
    </edge>
    <edge id=":J1_8" function="internal">
        <lane id=":J1_8_0" index="0" speed="6.51" length="9.03" shape="-3695.20,489.60 -3694.85,492.05 -3693.80,493.80 -3692.05,494.85 -3689.60,495.20"/>
    </edge>
    <edge id=":J1_9" function="internal">
        <lane id=":J1_9_0" index="0" speed="13.89" length="20.80" shape="-3695.20,489.60 -3695.20,510.40"/>
        <lane id=":J1_9_1" index="1" speed="13.89" length="20.80" shape="-3698.40,489.60 -3698.40,510.40"/>
    </edge>
    <edge id=":J1_11" function="internal">
        <lane id=":J1_11_0" index="0" speed="9.26" length="5.01" shape="-3698.40,489.60 -3699.11,494.56"/>
    </edge>
    <edge id=":J1_18" function="internal">
        <lane id=":J1_18_0" index="0" speed="9.26" length="14.34" shape="-3699.11,494.56 -3699.15,494.85 -3701.40,498.60 -3705.15,500.85 -3710.40,501.60"/>
    </edge>
    <edge id=":J1_12" function="internal">
        <lane id=":J1_12_0" index="0" speed="6.51" length="9.03" shape="-3710.40,495.20 -3707.95,494.85 -3706.20,493.80 -3705.15,492.05 -3704.80,489.60"/>
    </edge>
    <edge id=":J1_13" function="internal">
        <lane id=":J1_13_0" index="0" speed="13.89" length="20.80" shape="-3710.40,495.20 -3689.60,495.20"/>
        <lane id=":J1_13_1" index="1" speed="13.89" length="20.80" shape="-3710.40,498.40 -3689.60,498.40"/>
    </edge>
    <edge id=":J1_15" function="internal">
        <lane id=":J1_15_0" index="0" speed="9.26" length="5.01" shape="-3710.40,498.40 -3705.44,499.11"/>
    </edge>
    <edge id=":J1_19" function="internal">
        <lane id=":J1_19_0" index="0" speed="9.26" length="14.34" shape="-3705.44,499.11 -3705.15,499.15 -3701.40,501.40 -3699.15,505.15 -3698.40,510.40"/>
    </edge>
    <edge id=":J10_0" function="internal">
        <lane id=":J10_0_0" index="0" speed="13.89" length="0.11" shape="-4556.85,-96.29 -4556.90,-96.29"/>
        <lane id=":J10_0_1" index="1" speed="13.89" length="0.11" shape="-4556.79,-99.49 -4556.98,-99.49"/>
    </edge>
    <edge id=":J10_2" function="internal">
        <lane id=":J10_2_0" index="0" speed="13.89" length="0.40" shape="-4557.14,-105.89 -4556.67,-105.89"/>
        <lane id=":J10_2_1" index="1" speed="13.89" length="0.40" shape="-4557.06,-102.69 -4556.73,-102.69"/>
    </edge>
    <edge id=":J11_0" function="internal">
        <lane id=":J11_0_0" index="0" speed="13.89" length="0.51" shape="-4546.48,-293.88 -4547.08,-293.88"/>
        <lane id=":J11_0_1" index="1" speed="13.89" length="0.51" shape="-4546.57,-297.08 -4547.00,-297.07"/>
    </edge>
    <edge id=":J11_2" function="internal">
        <lane id=":J11_2_0" index="0" speed="13.89" length="0.17" shape="-4546.84,-303.47 -4546.76,-303.47"/>
        <lane id=":J11_2_1" index="1" speed="13.89" length="0.17" shape="-4546.92,-300.27 -4546.66,-300.27"/>
    </edge>
    <edge id=":J12_0" function="internal">
        <lane id=":J12_0_0" index="0" speed="13.89" length="0.33" shape="-4505.10,-355.60 -4505.10,-355.95"/>
        <lane id=":J12_0_1" index="1" speed="13.89" length="0.33" shape="-4501.90,-355.62 -4501.90,-355.93"/>
    </edge>
    <edge id=":J12_2" function="internal">
        <lane id=":J12_2_0" index="0" speed="13.89" length="0.25" shape="-4495.50,-355.88 -4495.50,-355.65"/>
        <lane id=":J12_2_1" index="1" speed="13.89" length="0.25" shape="-4498.70,-355.91 -4498.70,-355.63"/>
    </edge>
    <edge id=":J13_0" function="internal">
        <lane id=":J13_0_0" index="0" speed="13.89" length="0.35" shape="-4294.39,-352.44 -4294.39,-352.03"/>
        <lane id=":J13_0_1" index="1" speed="13.89" length="0.35" shape="-4297.59,-352.38 -4297.59,-352.08"/>
    </edge>
    <edge id=":J13_2" function="internal">
        <lane id=":J13_2_0" index="0" speed="13.89" length="0.14" shape="-4303.99,-352.18 -4303.99,-352.27"/>
        <lane id=":J13_2_1" index="1" speed="13.89" length="0.14" shape="-4300.79,-352.13 -4300.79,-352.33"/>
    </edge>
    <edge id=":J14_0" function="internal">
        <lane id=":J14_0_0" index="0" speed="13.89" length="0.55" shape="-4093.79,-346.48 -4093.79,-345.84"/>
        <lane id=":J14_0_1" index="1" speed="13.89" length="0.55" shape="-4096.99,-346.39 -4096.99,-345.94"/>
    </edge>
    <edge id=":J14_2" function="internal">
        <lane id=":J14_2_0" index="0" speed="13.89" length="0.18" shape="-4103.38,-346.13 -4103.38,-346.23"/>
        <lane id=":J14_2_1" index="1" speed="13.89" length="0.18" shape="-4100.18,-346.04 -4100.18,-346.31"/>
    </edge>
    <edge id=":J15_0" function="internal">
        <lane id=":J15_0_0" index="0" speed="13.89" length="0.39" shape="-3905.81,-361.63 -3905.81,-362.08"/>
        <lane id=":J15_0_1" index="1" speed="13.89" length="0.39" shape="-3902.61,-361.68 -3902.61,-362.00"/>
    </edge>
    <edge id=":J15_2" function="internal">
        <lane id=":J15_2_0" index="0" speed="13.89" length="0.11" shape="-3896.21,-361.83 -3896.21,-361.78"/>
        <lane id=":J15_2_1" index="1" speed="13.89" length="0.11" shape="-3899.41,-361.91 -3899.41,-361.73"/>
    </edge>
    <edge id=":J16_0" function="internal">
        <lane id=":J16_0_0" index="0" speed="13.89" length="0.55" shape="-3706.20,-357.49 -3706.20,-358.14"/>
        <lane id=":J16_0_1" index="1" speed="13.89" length="0.55" shape="-3703.01,-357.57 -3703.00,-358.03"/>
    </edge>
    <edge id=":J16_2" function="internal">
        <lane id=":J16_2_0" index="0" speed="13.89" length="0.18" shape="-3696.61,-357.81 -3696.61,-357.72"/>
        <lane id=":J16_2_1" index="1" speed="13.89" length="0.18" shape="-3699.80,-357.92 -3699.81,-357.64"/>
    </edge>
    <edge id=":J17_0" function="internal">
        <lane id=":J17_0_0" index="0" speed="13.89" length="0.68" shape="-3493.49,-342.49 -3493.49,-341.70"/>
        <lane id=":J17_0_1" index="1" speed="13.89" length="0.68" shape="-3496.69,-342.39 -3496.69,-341.83"/>
    </edge>
    <edge id=":J17_2" function="internal">
        <lane id=":J17_2_0" index="0" speed="13.89" length="0.23" shape="-3503.09,-342.09 -3503.08,-342.20"/>
        <lane id=":J17_2_1" index="1" speed="13.89" length="0.23" shape="-3499.89,-341.96 -3499.89,-342.30"/>
    </edge>
    <edge id=":J18_0" function="internal">
        <lane id=":J18_0_0" index="0" speed="13.89" length="0.33" shape="-3436.44,-294.88 -3436.80,-294.88"/>
        <lane id=":J18_0_1" index="1" speed="13.89" length="0.33" shape="-3436.47,-298.08 -3436.78,-298.08"/>
    </edge>
    <edge id=":J18_2" function="internal">
        <lane id=":J18_2_0" index="0" speed="13.89" length="0.25" shape="-3436.75,-304.48 -3436.53,-304.48"/>
        <lane id=":J18_2_1" index="1" speed="13.89" length="0.25" shape="-3436.77,-301.28 -3436.50,-301.28"/>
    </edge>
    <edge id=":J19_0" function="internal">
        <lane id=":J19_0_0" index="0" speed="13.89" length="0.35" shape="-3447.03,-94.27 -3447.44,-94.27"/>
        <lane id=":J19_0_1" index="1" speed="13.89" length="0.35" shape="-3447.09,-97.47 -3447.38,-97.47"/>
    </edge>
    <edge id=":J19_2" function="internal">
        <lane id=":J19_2_0" index="0" speed="13.89" length="0.11" shape="-3447.27,-103.87 -3447.22,-103.87"/>
        <lane id=":J19_2_1" index="1" speed="13.89" length="0.11" shape="-3447.33,-100.67 -3447.16,-100.67"/>
    </edge>
    <edge id=":J2_0" function="internal">
        <lane id=":J2_0_0" index="0" speed="13.89" length="14.40" shape="-4504.80,607.20 -4504.80,592.80"/>
        <lane id=":J2_0_1" index="1" speed="13.89" length="14.40" shape="-4501.60,607.20 -4501.60,592.80"/>
    </edge>
    <edge id=":J2_2" function="internal">
        <lane id=":J2_2_0" index="0" speed="8.67" length="3.71" shape="-4501.60,607.20 -4500.89,603.56"/>
    </edge>
    <edge id=":J2_8" function="internal">
        <lane id=":J2_8_0" index="0" speed="8.67" length="13.14" shape="-4500.89,603.56 -4500.85,603.35 -4498.60,600.60 -4494.85,598.95 -4489.60,598.40"/>
    </edge>
    <edge id=":J2_3" function="internal">
        <lane id=":J2_3_0" index="0" speed="6.51" length="9.03" shape="-4489.60,601.60 -4492.05,601.95 -4493.80,603.00 -4494.85,604.75 -4495.20,607.20"/>
    </edge>
    <edge id=":J2_4" function="internal">
        <lane id=":J2_4_0" index="0" speed="8.67" length="16.85" shape="-4489.60,601.60 -4494.85,601.05 -4498.60,599.40 -4500.85,596.65 -4501.60,592.80"/>
    </edge>
    <edge id=":J2_5" function="internal">
        <lane id=":J2_5_0" index="0" speed="6.51" length="9.03" shape="-4495.20,592.80 -4494.85,595.25 -4493.80,597.00 -4492.05,598.05 -4489.60,598.40"/>
    </edge>
    <edge id=":J2_6" function="internal">
        <lane id=":J2_6_0" index="0" speed="13.89" length="14.40" shape="-4495.20,592.80 -4495.20,607.20"/>
        <lane id=":J2_6_1" index="1" speed="13.89" length="14.40" shape="-4498.40,592.80 -4498.40,607.20"/>
    </edge>
    <edge id=":J20_0" function="internal">
        <lane id=":J20_0_0" index="0" speed="13.89" length="0.32" shape="-3446.57,505.02 -3446.91,505.02"/>
        <lane id=":J20_0_1" index="1" speed="13.89" length="0.32" shape="-3446.58,501.82 -3446.89,501.82"/>
    </edge>
    <edge id=":J20_2" function="internal">
        <lane id=":J20_2_0" index="0" speed="13.89" length="0.27" shape="-3446.87,495.42 -3446.61,495.42"/>
        <lane id=":J20_2_1" index="1" speed="13.89" length="0.27" shape="-3446.88,498.62 -3446.60,498.62"/>
    </edge>
    <edge id=":J21_0" function="internal">
        <lane id=":J21_0_0" index="0" speed="13.89" length="0.83" shape="-3444.21,306.92 -3445.18,306.93"/>
        <lane id=":J21_0_1" index="1" speed="13.89" length="0.83" shape="-3444.37,303.72 -3445.06,303.73"/>
    </edge>
    <edge id=":J21_2" function="internal">
        <lane id=":J21_2_0" index="0" speed="13.89" length="0.28" shape="-3444.81,297.33 -3444.67,297.33"/>
        <lane id=":J21_2_1" index="1" speed="13.89" length="0.28" shape="-3444.93,300.53 -3444.52,300.53"/>
    </edge>
    <edge id=":J22_0" function="internal">
        <lane id=":J22_0_0" index="0" speed="13.89" length="0.30" shape="-3436.48,104.82 -3436.78,104.82"/>
        <lane id=":J22_0_1" index="1" speed="13.89" length="0.30" shape="-3436.48,101.62 -3436.78,101.62"/>
    </edge>
    <edge id=":J22_2" function="internal">
        <lane id=":J22_2_0" index="0" speed="13.89" length="0.30" shape="-3436.78,95.22 -3436.48,95.22"/>
        <lane id=":J22_2_1" index="1" speed="13.89" length="0.30" shape="-3436.78,98.42 -3436.48,98.42"/>
    </edge>
    <edge id=":J23_0" function="internal">
        <lane id=":J23_0_0" index="0" speed="13.89" length="0.22" shape="-3446.19,703.10 -3446.30,703.10"/>
        <lane id=":J23_0_1" index="1" speed="13.89" length="0.22" shape="-3446.07,699.91 -3446.40,699.91"/>
    </edge>
    <edge id=":J23_2" function="internal">
        <lane id=":J23_2_0" index="0" speed="13.89" length="0.66" shape="-3446.60,693.51 -3445.83,693.51"/>
        <lane id=":J23_2_1" index="1" speed="13.89" length="0.66" shape="-3446.50,696.71 -3445.95,696.71"/>
    </edge>
    <edge id=":J231_0" function="internal">
        <lane id=":J231_0_0" index="0" speed="6.52" length="9.07" shape="-3704.80,407.25 -3705.15,404.78 -3706.20,403.01 -3707.95,401.95 -3710.40,401.60"/>
    </edge>
    <edge id=":J231_1" function="internal">
        <lane id=":J231_1_0" index="0" speed="13.89" length="14.45" shape="-3704.80,407.25 -3704.80,392.80"/>
        <lane id=":J231_1_1" index="1" speed="13.89" length="14.45" shape="-3701.60,407.25 -3701.60,392.80"/>
    </edge>
    <edge id=":J231_3" function="internal">
        <lane id=":J231_3_0" index="0" speed="8.66" length="3.73" shape="-3701.60,407.25 -3700.89,403.59"/>
    </edge>
    <edge id=":J231_14" function="internal">
        <lane id=":J231_14_0" index="0" speed="8.66" length="13.17" shape="-3700.89,403.59 -3700.85,403.38 -3698.59,400.63 -3694.83,399.00 -3689.56,398.49"/>
    </edge>
    <edge id=":J231_4" function="internal">
        <lane id=":J231_4_0" index="0" speed="6.49" length="9.03" shape="-3689.59,401.69 -3692.04,402.02 -3693.80,403.05 -3694.85,404.80 -3695.20,407.25"/>
    </edge>
    <edge id=":J231_5" function="internal">
        <lane id=":J231_5_0" index="0" speed="13.89" length="20.81" shape="-3689.59,401.69 -3710.40,401.60"/>
    </edge>
    <edge id=":J231_6" function="internal">
        <lane id=":J231_6_0" index="0" speed="8.71" length="16.89" shape="-3689.59,401.69 -3694.84,401.09 -3698.60,399.41 -3700.85,396.65 -3701.60,392.80"/>
    </edge>
    <edge id=":J231_7" function="internal">
        <lane id=":J231_7_0" index="0" speed="6.55" length="9.12" shape="-3695.20,392.80 -3694.85,395.27 -3693.79,397.04 -3692.03,398.11 -3689.56,398.49"/>
    </edge>
    <edge id=":J231_8" function="internal">
        <lane id=":J231_8_0" index="0" speed="13.89" length="14.45" shape="-3695.20,392.80 -3695.20,407.25"/>
        <lane id=":J231_8_1" index="1" speed="13.89" length="14.45" shape="-3698.40,392.80 -3698.40,407.25"/>
    </edge>
    <edge id=":J231_10" function="internal">
        <lane id=":J231_10_0" index="0" speed="8.67" length="3.71" shape="-3698.40,392.80 -3699.11,396.44"/>
    </edge>
    <edge id=":J231_15" function="internal">
        <lane id=":J231_15_0" index="0" speed="8.67" length="13.14" shape="-3699.11,396.44 -3699.15,396.65 -3701.40,399.40 -3705.15,401.05 -3710.40,401.60"/>
    </edge>
    <edge id=":J231_11" function="internal">
        <lane id=":J231_11_0" index="0" speed="6.51" length="9.03" shape="-3710.40,398.40 -3707.95,398.05 -3706.20,397.00 -3705.15,395.25 -3704.80,392.80"/>
    </edge>
    <edge id=":J231_12" function="internal">
        <lane id=":J231_12_0" index="0" speed="13.89" length="20.84" shape="-3710.40,398.40 -3689.56,398.49"/>
    </edge>
    <edge id=":J231_13" function="internal">
        <lane id=":J231_13_0" index="0" speed="8.68" length="16.89" shape="-3710.40,398.40 -3705.15,398.95 -3701.40,400.61 -3699.15,403.38 -3698.40,407.25"/>
    </edge>
    <edge id=":J233_0" function="internal">
        <lane id=":J233_0_0" index="0" speed="6.51" length="9.03" shape="-3704.80,310.40 -3705.15,307.95 -3706.20,306.20 -3707.95,305.15 -3710.40,304.80"/>
    </edge>
    <edge id=":J233_1" function="internal">
        <lane id=":J233_1_0" index="0" speed="13.89" length="20.80" shape="-3704.80,310.40 -3704.80,289.60"/>
        <lane id=":J233_1_1" index="1" speed="13.89" length="20.80" shape="-3701.60,310.40 -3701.60,289.60"/>
    </edge>
    <edge id=":J233_3" function="internal">
        <lane id=":J233_3_0" index="0" speed="9.26" length="5.01" shape="-3701.60,310.40 -3700.89,305.44"/>
    </edge>
    <edge id=":J233_16" function="internal">
        <lane id=":J233_16_0" index="0" speed="9.26" length="14.34" shape="-3700.89,305.44 -3700.85,305.15 -3698.60,301.40 -3694.85,299.15 -3689.60,298.40"/>
    </edge>
    <edge id=":J233_4" function="internal">
        <lane id=":J233_4_0" index="0" speed="6.51" length="9.03" shape="-3689.60,304.80 -3692.05,305.15 -3693.80,306.20 -3694.85,307.95 -3695.20,310.40"/>
    </edge>
    <edge id=":J233_5" function="internal">
        <lane id=":J233_5_0" index="0" speed="13.89" length="20.80" shape="-3689.60,304.80 -3710.40,304.80"/>
        <lane id=":J233_5_1" index="1" speed="13.89" length="20.80" shape="-3689.60,301.60 -3710.40,301.60"/>
    </edge>
    <edge id=":J233_7" function="internal">
        <lane id=":J233_7_0" index="0" speed="9.26" length="5.01" shape="-3689.60,301.60 -3694.56,300.89"/>
    </edge>
    <edge id=":J233_17" function="internal">
        <lane id=":J233_17_0" index="0" speed="9.26" length="14.34" shape="-3694.56,300.89 -3694.85,300.85 -3698.60,298.60 -3700.85,294.85 -3701.60,289.60"/>
    </edge>
    <edge id=":J233_8" function="internal">
        <lane id=":J233_8_0" index="0" speed="6.51" length="9.03" shape="-3695.20,289.60 -3694.85,292.05 -3693.80,293.80 -3692.05,294.85 -3689.60,295.20"/>
    </edge>
    <edge id=":J233_9" function="internal">
        <lane id=":J233_9_0" index="0" speed="13.89" length="20.80" shape="-3695.20,289.60 -3695.20,310.40"/>
        <lane id=":J233_9_1" index="1" speed="13.89" length="20.80" shape="-3698.40,289.60 -3698.40,310.40"/>
    </edge>
    <edge id=":J233_11" function="internal">
        <lane id=":J233_11_0" index="0" speed="9.26" length="5.01" shape="-3698.40,289.60 -3699.11,294.56"/>
    </edge>
    <edge id=":J233_18" function="internal">
        <lane id=":J233_18_0" index="0" speed="9.26" length="14.34" shape="-3699.11,294.56 -3699.15,294.85 -3701.40,298.60 -3705.15,300.85 -3710.40,301.60"/>
    </edge>
    <edge id=":J233_12" function="internal">
        <lane id=":J233_12_0" index="0" speed="6.51" length="9.03" shape="-3710.40,295.20 -3707.95,294.85 -3706.20,293.80 -3705.15,292.05 -3704.80,289.60"/>
    </edge>
    <edge id=":J233_13" function="internal">
        <lane id=":J233_13_0" index="0" speed="13.89" length="20.80" shape="-3710.40,295.20 -3689.60,295.20"/>
        <lane id=":J233_13_1" index="1" speed="13.89" length="20.80" shape="-3710.40,298.40 -3689.60,298.40"/>
    </edge>
    <edge id=":J233_15" function="internal">
        <lane id=":J233_15_0" index="0" speed="9.26" length="5.01" shape="-3710.40,298.40 -3705.44,299.11"/>
    </edge>
    <edge id=":J233_19" function="internal">
        <lane id=":J233_19_0" index="0" speed="9.26" length="14.34" shape="-3705.44,299.11 -3705.15,299.15 -3701.40,301.40 -3699.15,305.15 -3698.40,310.40"/>
    </edge>
    <edge id=":J234_0" function="internal">
        <lane id=":J234_0_0" index="0" speed="13.89" length="0.10" shape="-3704.80,200.00 -3704.80,200.00"/>
        <lane id=":J234_0_1" index="1" speed="13.89" length="0.10" shape="-3701.60,200.00 -3701.60,200.00"/>
    </edge>
    <edge id=":J234_2" function="internal">
        <lane id=":J234_2_0" index="0" speed="13.89" length="0.10" shape="-3695.20,200.00 -3695.20,200.00"/>
        <lane id=":J234_2_1" index="1" speed="13.89" length="0.10" shape="-3698.40,200.00 -3698.40,200.00"/>
    </edge>
    <edge id=":J235_0" function="internal">
        <lane id=":J235_0_0" index="0" speed="6.51" length="9.03" shape="-3704.80,110.40 -3705.15,107.95 -3706.20,106.20 -3707.95,105.15 -3710.40,104.80"/>
    </edge>
    <edge id=":J235_1" function="internal">
        <lane id=":J235_1_0" index="0" speed="13.89" length="20.80" shape="-3704.80,110.40 -3704.80,89.60"/>
        <lane id=":J235_1_1" index="1" speed="13.89" length="20.80" shape="-3701.60,110.40 -3701.60,89.60"/>
    </edge>
    <edge id=":J235_3" function="internal">
        <lane id=":J235_3_0" index="0" speed="9.26" length="5.01" shape="-3701.60,110.40 -3700.89,105.44"/>
    </edge>
    <edge id=":J235_16" function="internal">
        <lane id=":J235_16_0" index="0" speed="9.26" length="14.34" shape="-3700.89,105.44 -3700.85,105.15 -3698.60,101.40 -3694.85,99.15 -3689.60,98.40"/>
    </edge>
    <edge id=":J235_4" function="internal">
        <lane id=":J235_4_0" index="0" speed="6.51" length="9.03" shape="-3689.60,104.80 -3692.05,105.15 -3693.80,106.20 -3694.85,107.95 -3695.20,110.40"/>
    </edge>
    <edge id=":J235_5" function="internal">
        <lane id=":J235_5_0" index="0" speed="13.89" length="20.80" shape="-3689.60,104.80 -3710.40,104.80"/>
        <lane id=":J235_5_1" index="1" speed="13.89" length="20.80" shape="-3689.60,101.60 -3710.40,101.60"/>
    </edge>
    <edge id=":J235_7" function="internal">
        <lane id=":J235_7_0" index="0" speed="9.26" length="5.01" shape="-3689.60,101.60 -3694.56,100.89"/>
    </edge>
    <edge id=":J235_17" function="internal">
        <lane id=":J235_17_0" index="0" speed="9.26" length="14.34" shape="-3694.56,100.89 -3694.85,100.85 -3698.60,98.60 -3700.85,94.85 -3701.60,89.60"/>
    </edge>
    <edge id=":J235_8" function="internal">
        <lane id=":J235_8_0" index="0" speed="6.51" length="9.03" shape="-3695.20,89.60 -3694.85,92.05 -3693.80,93.80 -3692.05,94.85 -3689.60,95.20"/>
    </edge>
    <edge id=":J235_9" function="internal">
        <lane id=":J235_9_0" index="0" speed="13.89" length="20.80" shape="-3695.20,89.60 -3695.20,110.40"/>
        <lane id=":J235_9_1" index="1" speed="13.89" length="20.80" shape="-3698.40,89.60 -3698.40,110.40"/>
    </edge>
    <edge id=":J235_11" function="internal">
        <lane id=":J235_11_0" index="0" speed="9.26" length="5.01" shape="-3698.40,89.60 -3699.11,94.56"/>
    </edge>
    <edge id=":J235_18" function="internal">
        <lane id=":J235_18_0" index="0" speed="9.26" length="14.34" shape="-3699.11,94.56 -3699.15,94.85 -3701.40,98.60 -3705.15,100.85 -3710.40,101.60"/>
    </edge>
    <edge id=":J235_12" function="internal">
        <lane id=":J235_12_0" index="0" speed="6.51" length="9.03" shape="-3710.40,95.20 -3707.95,94.85 -3706.20,93.80 -3705.15,92.05 -3704.80,89.60"/>
    </edge>
    <edge id=":J235_13" function="internal">
        <lane id=":J235_13_0" index="0" speed="13.89" length="20.80" shape="-3710.40,95.20 -3689.60,95.20"/>
        <lane id=":J235_13_1" index="1" speed="13.89" length="20.80" shape="-3710.40,98.40 -3689.60,98.40"/>
    </edge>
    <edge id=":J235_15" function="internal">
        <lane id=":J235_15_0" index="0" speed="9.26" length="5.01" shape="-3710.40,98.40 -3705.44,99.11"/>
    </edge>
    <edge id=":J235_19" function="internal">
        <lane id=":J235_19_0" index="0" speed="9.26" length="14.34" shape="-3705.44,99.11 -3705.15,99.15 -3701.40,101.40 -3699.15,105.15 -3698.40,110.40"/>
    </edge>
    <edge id=":J236_0" function="internal">
        <lane id=":J236_0_0" index="0" speed="6.45" length="9.03" shape="-3704.80,7.37 -3705.15,4.91 -3706.21,3.17 -3707.97,2.16 -3710.44,1.87"/>
    </edge>
    <edge id=":J236_1" function="internal">
        <lane id=":J236_1_0" index="0" speed="13.89" length="14.61" shape="-3704.80,7.37 -3704.80,-7.25"/>
        <lane id=":J236_1_1" index="1" speed="13.89" length="14.61" shape="-3701.60,7.37 -3701.60,-7.25"/>
    </edge>
    <edge id=":J236_3" function="internal">
        <lane id=":J236_3_0" index="0" speed="8.73" length="3.78" shape="-3701.60,7.37 -3700.89,3.65"/>
    </edge>
    <edge id=":J236_14" function="internal">
        <lane id=":J236_14_0" index="0" speed="8.73" length="13.23" shape="-3700.89,3.65 -3700.85,3.44 -3698.60,0.63 -3694.84,-1.08 -3689.59,-1.67"/>
    </edge>
    <edge id=":J236_4" function="internal">
        <lane id=":J236_4_0" index="0" speed="6.59" length="9.24" shape="-3689.57,1.53 -3692.03,1.91 -3693.79,3.01 -3694.85,4.83 -3695.20,7.37"/>
    </edge>
    <edge id=":J236_5" function="internal">
        <lane id=":J236_5_0" index="0" speed="13.89" length="20.88" shape="-3689.57,1.53 -3710.44,1.87"/>
    </edge>
    <edge id=":J236_6" function="internal">
        <lane id=":J236_6_0" index="0" speed="8.66" length="16.89" shape="-3689.57,1.53 -3694.83,1.01 -3698.59,-0.62 -3700.85,-3.38 -3701.60,-7.25"/>
    </edge>
    <edge id=":J236_7" function="internal">
        <lane id=":J236_7_0" index="0" speed="6.49" length="9.03" shape="-3695.20,-7.25 -3694.85,-4.79 -3693.80,-3.05 -3692.04,-2.01 -3689.59,-1.67"/>
    </edge>
    <edge id=":J236_8" function="internal">
        <lane id=":J236_8_0" index="0" speed="13.89" length="14.61" shape="-3695.20,-7.25 -3695.20,7.37"/>
        <lane id=":J236_8_1" index="1" speed="13.89" length="14.61" shape="-3698.40,-7.25 -3698.40,7.37"/>
    </edge>
    <edge id=":J236_10" function="internal">
        <lane id=":J236_10_0" index="0" speed="8.79" length="3.73" shape="-3698.40,-7.25 -3699.11,-3.58"/>
    </edge>
    <edge id=":J236_15" function="internal">
        <lane id=":J236_15_0" index="0" speed="8.79" length="13.28" shape="-3699.11,-3.58 -3699.15,-3.37 -3701.41,-0.56 -3705.17,1.18 -3710.44,1.87"/>
    </edge>
    <edge id=":J236_11" function="internal">
        <lane id=":J236_11_0" index="0" speed="6.66" length="9.33" shape="-3710.52,-1.33 -3708.02,-1.76 -3706.23,-2.88 -3705.16,-4.71 -3704.80,-7.25"/>
    </edge>
    <edge id=":J236_12" function="internal">
        <lane id=":J236_12_0" index="0" speed="13.89" length="20.94" shape="-3710.52,-1.33 -3689.59,-1.67"/>
    </edge>
    <edge id=":J236_13" function="internal">
        <lane id=":J236_13_0" index="0" speed="8.63" length="17.00" shape="-3710.52,-1.33 -3705.22,-0.90 -3701.43,0.69 -3699.16,3.44 -3698.40,7.37"/>
    </edge>
    <edge id=":J237_0" function="internal">
        <lane id=":J237_0_0" index="0" speed="6.51" length="9.03" shape="-3704.80,-89.60 -3705.15,-92.05 -3706.20,-93.80 -3707.95,-94.85 -3710.40,-95.20"/>
    </edge>
    <edge id=":J237_1" function="internal">
        <lane id=":J237_1_0" index="0" speed="13.89" length="20.80" shape="-3704.80,-89.60 -3704.80,-110.40"/>
        <lane id=":J237_1_1" index="1" speed="13.89" length="20.80" shape="-3701.60,-89.60 -3701.60,-110.40"/>
    </edge>
    <edge id=":J237_3" function="internal">