<?xml version="1.0" encoding="UTF-8"?>

<!-- generated on 2024-01-21 20:42:30 by Eclipse SUMO netedit Version 1.18.0
-->

<routes xmlns:xsi="http://www.w3.org/2001/XMLSchema-instance" xsi:noNamespaceSchemaLocation="http://sumo.dlr.de/xsd/routes_file.xsd">
    <!-- VTypes -->
    <vType id="car" lcStrategic="120" lcCooperative="1.0"/>
    <!-- Vehicles, persons and containers (sorted by depart) -->
    <trip id="10144" type="car" depart="0.00" from="f17" to="d98"/>
    <trip id="11328" type="car" depart="0.00" from="f19" to="d96"/>
    <trip id="12450" type="car" depart="0.00" from="f21" to="d81"/>
    <trip id="14348" type="car" depart="0.00" from="f24" to="d99"/>
    <trip id="2721" type="car" depart="0.00" from="f5" to="d64"/>
    <trip id="743" type="car" depart="0.00" from="f2" to="d27"/>
    <trip id="7551" type="car" depart="0.00" from="f13" to="d70"/>
    <trip id="14231" type="car" depart="12.14" from="f24" to="d79"/>
    <trip id="6683" type="car" depart="143.10" from="f12" to="d27"/>
    <trip id="1247" type="car" depart="211.65" from="f3" to="d14"/>
    <trip id="13779" type="car" depart="302.55" from="f24" to="d4"/>
    <trip id="13645" type="car" depart="351.81" from="f23" to="d80"/>
    <trip id="10000" type="car" depart="356.58" from="f17" to="d74"/>
    <trip id="15578" type="car" depart="357.75" from="-d40" to="d30"/>
    <trip id="3951" type="car" depart="360.81" from="f7" to="d69"/>
    <trip id="13021" type="car" depart="362.20" from="f22" to="d74"/>
    <trip id="9970" type="car" depart="377.83" from="f17" to="d70"/>
    <trip id="3400" type="car" depart="402.37" from="f6" to="d76"/>
    <trip id="13781" type="car" depart="408.11" from="f24" to="d4"/>
    <trip id="16866" type="car" depart="445.43" from="-d79" to="d61"/>
    <trip id="12319" type="car" depart="460.30" from="f21" to="d59"/>
    <trip id="5320" type="car" depart="477.65" from="f9" to="d99"/>
    <trip id="9709" type="car" depart="494.01" from="f17" to="d26"/>
    <trip id="16339" type="car" depart="496.24" from="-d64" to="d6"/>
    <trip id="1931" type="car" depart="509.65" from="f4" to="d29"/>
    <trip id="15638" type="car" depart="519.72" from="-d42" to="d11"/>
    <trip id="16307" type="car" depart="540.43" from="-d63" to="d8"/>
    <trip id="4231" type="car" depart="541.31" from="f8" to="d14"/>
    <trip id="5625" type="car" depart="576.09" from="f10" to="d52"/>
    <trip id="765" type="car" depart="577.44" from="f2" to="d31"/>
    <trip id="13405" type="car" depart="582.08" from="f23" to="d37"/>
    <trip id="16559" type="car" depart="604.49" from="-d70" to="d40"/>
    <trip id="5272" type="car" depart="610.72" from="f9" to="d91"/>
    <trip id="8575" type="car" depart="615.27" from="f15" to="d39"/>
    <trip id="5833" type="car" depart="622.62" from="f10" to="d84"/>
    <trip id="13020" type="car" depart="626.61" from="f22" to="d74"/>
    <trip id="12717" type="car" depart="635.07" from="f22" to="d25"/>
    <trip id="3250" type="car" depart="653.35" from="f6" to="d51"/>
    <trip id="1240" type="car" depart="658.43" from="f3" to="d12"/>
    <trip id="7228" type="car" depart="661.09" from="f13" to="d18"/>
    <trip id="4021" type="car" depart="662.62" from="f7" to="d81"/>
    <trip id="9075" type="car" depart="667.07" from="f16" to="d19"/>
    <trip id="12951" type="car" depart="671.32" from="f22" to="d64"/>
    <trip id="12727" type="car" depart="681.20" from="f22" to="d27"/>
    <trip id="51" type="car" depart="712.84" from="f1" to="d11"/>
    <trip id="17345" type="car" depart="721.65" from="-d94" to="d28"/>
    <trip id="9840" type="car" depart="727.24" from="f17" to="d48"/>
    <trip id="13145" type="car" depart="732.72" from="f22" to="d95"/>
    <trip id="8036" type="car" depart="736.58" from="f14" to="d50"/>
    <trip id="9960" type="car" depart="742.75" from="f17" to="d68"/>
    <trip id="9155" type="car" depart="746.22" from="f16" to="d33"/>
    <trip id="5880" type="car" depart="752.17" from="f10" to="d93"/>
    <trip id="2899" type="car" depart="765.50" from="f5" to="d94"/>
    <trip id="11979" type="car" depart="770.44" from="f21" to="d2"/>
    <trip id="15497" type="car" depart="782.40" from="-d37" to="d5"/>
    <trip id="3225" type="car" depart="783.03" from="f6" to="d47"/>
    <trip id="10287" type="car" depart="783.13" from="f18" to="d21"/>
    <trip id="7402" type="car" depart="784.73" from="f13" to="d46"/>
    <trip id="2836" type="car" depart="790.14" from="f5" to="d83"/>
    <trip id="14549" type="car" depart="791.84" from="-d7" to="d5"/>
    <trip id="10734" type="car" depart="795.89" from="f18" to="d96"/>
    <trip id="6357" type="car" depart="796.97" from="f11" to="d73"/>
    <trip id="6715" type="car" depart="798.09" from="f12" to="d32"/>
    <trip id="13369" type="car" depart="800.25" from="f23" to="d32"/>
    <trip id="13518" type="car" depart="807.41" from="f23" to="d58"/>
    <trip id="11336" type="car" depart="811.64" from="f19" to="d98"/>
    <trip id="7543" type="car" depart="825.87" from="f13" to="d69"/>
    <trip id="6531" type="car" depart="833.92" from="f12" to="d2"/>
    <trip id="13046" type="car" depart="834.23" from="f22" to="d78"/>
    <trip id="4469" type="car" depart="855.74" from="f8" to="d53"/>
    <trip id="9857" type="car" depart="855.88" from="f17" to="d52"/>
    <trip id="15599" type="car" depart="861.44" from="-d40" to="d87"/>
    <trip id="10247" type="car" depart="873.60" from="f18" to="d14"/>
    <trip id="6569" type="car" depart="875.91" from="f12" to="d8"/>
    <trip id="15671" type="car" depart="877.22" from="-d43" to="d5"/>
    <trip id="14945" type="car" depart="881.78" from="-d19" to="d58"/>
    <trip id="9702" type="car" depart="883.63" from="f17" to="d25"/>
    <trip id="13609" type="car" depart="884.66" from="f23" to="d73"/>
    <trip id="10087" type="car" depart="890.03" from="f17" to="d88"/>
    <trip id="9055" type="car" depart="891.24" from="f16" to="d15"/>
    <trip id="11822" type="car" depart="896.27" from="f20" to="d77"/>
    <trip id="7605" type="car" depart="898.34" from="f13" to="d79"/>
    <trip id="4557" type="car" depart="900.04" from="f8" to="d69"/>
    <trip id="12630" type="car" depart="901.10" from="f22" to="d12"/>
    <trip id="2437" type="car" depart="914.30" from="f5" to="d13"/>
    <trip id="8538" type="car" depart="924.21" from="f15" to="d33"/>
    <trip id="3901" type="car" depart="926.95" from="f7" to="d61"/>
    <trip id="8830" type="car" depart="927.21" from="f15" to="d81"/>
    <trip id="4351" type="car" depart="930.28" from="f8" to="d33"/>
    <trip id="10799" type="car" depart="932.60" from="f19" to="d6"/>
    <trip id="12949" type="car" depart="947.29" from="f22" to="d64"/>
    <trip id="3590" type="car" depart="952.66" from="f7" to="d10"/>
    <trip id="5716" type="car" depart="970.71" from="f10" to="d66"/>
    <trip id="16587" type="car" depart="972.69" from="-d71" to="d10"/>
    <trip id="17220" type="car" depart="972.76" from="-d90" to="d42"/>
    <trip id="262" type="car" depart="974.05" from="f1" to="d46"/>
    <trip id="5823" type="car" depart="984.51" from="f10" to="d82"/>
    <trip id="15021" type="car" depart="985.32" from="-d21" to="d86"/>
    <trip id="745" type="car" depart="998.35" from="f2" to="d27"/>
    <trip id="7558" type="car" depart="1006.06" from="f13" to="d71"/>
    <trip id="2907" type="car" depart="1008.25" from="f5" to="d95"/>
    <trip id="11242" type="car" depart="1008.67" from="f19" to="d82"/>
    <trip id="1594" type="car" depart="1016.83" from="f3" to="d73"/>
    <trip id="15185" type="car" depart="1016.98" from="-d27" to="d10"/>
    <trip id="12248" type="car" depart="1021.26" from="f21" to="d49"/>
    <trip id="12266" type="car" depart="1021.72" from="f21" to="d51"/>
    <trip id="13206" type="car" depart="1022.65" from="f23" to="d6"/>
    <trip id="16577" type="car" depart="1025.99" from="-d70" to="d83"/>
    <trip id="4445" type="car" depart="1035.43" from="f8" to="d49"/>
    <trip id="14990" type="car" depart="1040.32" from="-d20" to="d87"/>
    <trip id="8479" type="car" depart="1045.03" from="f15" to="d24"/>
    <trip id="9076" type="car" depart="1049.01" from="f16" to="d20"/>
    <trip id="17315" type="car" depart="1049.25" from="-d93" to="d40"/>
    <trip id="12245" type="car" depart="1050.44" from="f21" to="d48"/>
    <trip id="3927" type="car" depart="1051.21" from="f7" to="d65"/>
    <trip id="3546" type="car" depart="1058.72" from="f7" to="d2"/>
    <trip id="5689" type="car" depart="1059.10" from="f10" to="d61"/>
    <trip id="5378" type="car" depart="1059.47" from="f10" to="d9"/>
    <trip id="16794" type="car" depart="1060.87" from="-d77" to="d6"/>
    <trip id="7104" type="car" depart="1061.19" from="f12" to="d98"/>
    <trip id="11304" type="car" depart="1068.92" from="f19" to="d92"/>
    <trip id="13003" type="car" depart="1070.83" from="f22" to="d72"/>
    <trip id="2467" type="car" depart="1073.64" from="f5" to="d18"/>
    <trip id="9641" type="car" depart="1074.06" from="f17" to="d15"/>
    <trip id="569" type="car" depart="1074.19" from="f1" to="d98"/>
    <trip id="6685" type="car" depart="1080.24" from="f12" to="d28"/>
    <trip id="13843" type="car" depart="1085.24" from="f24" to="d15"/>
    <trip id="16665" type="car" depart="1087.69" from="-d72" to="d98"/>
    <trip id="2072" type="car" depart="1091.34" from="f4" to="d51"/>
    <trip id="10589" type="car" depart="1097.76" from="f18" to="d72"/>
    <trip id="63" type="car" depart="1098.26" from="f1" to="d13"/>
    <trip id="11908" type="car" depart="1098.89" from="f20" to="d91"/>
    <trip id="14955" type="car" depart="1099.20" from="-d19" to="d84"/>
    <trip id="14841" type="car" depart="1101.46" from="-d16" to="d25"/>
    <trip id="14004" type="car" depart="1103.62" from="f24" to="d43"/>
    <trip id="14313" type="car" depart="1103.80" from="f24" to="d93"/>
    <trip id="13841" type="car" depart="1105.84" from="f24" to="d15"/>
    <trip id="16705" type="car" depart="1113.80" from="-d74" to="d27"/>
    <trip id="10512" type="car" depart="1115.17" from="f18" to="d59"/>
    <trip id="13412" type="car" depart="1117.04" from="f23" to="d39"/>
    <trip id="1095" type="car" depart="1117.42" from="f2" to="d88"/>
    <trip id="12616" type="car" depart="1120.31" from="f22" to="d10"/>
    <trip id="3896" type="car" depart="1120.37" from="f7" to="d60"/>
    <trip id="16218" type="car" depart="1123.65" from="-d60" to="d58"/>
    <trip id="652" type="car" depart="1125.51" from="f2" to="d12"/>
    <trip id="12070" type="car" depart="1125.60" from="f21" to="d19"/>
    <trip id="319" type="car" depart="1127.82" from="f1" to="d56"/>
    <trip id="2045" type="car" depart="1128.57" from="f4" to="d47"/>
    <trip id="11787" type="car" depart="1132.91" from="f20" to="d71"/>
    <trip id="13341" type="car" depart="1135.72" from="f23" to="d28"/>
    <trip id="6758" type="car" depart="1138.66" from="f12" to="d39"/>
    <trip id="11607" type="car" depart="1142.68" from="f20" to="d42"/>
    <trip id="11349" type="car" depart="1146.28" from="f19" to="d100"/>
    <trip id="12793" type="car" depart="1148.70" from="f22" to="d37"/>
    <trip id="4932" type="car" depart="1151.63" from="f9" to="d33"/>
    <trip id="13346" type="car" depart="1152.20" from="f23" to="d29"/>
    <trip id="986" type="car" depart="1160.62" from="f2" to="d69"/>
    <trip id="13533" type="car" depart="1162.94" from="f23" to="d60"/>
    <trip id="14478" type="car" depart="1170.24" from="-d5" to="d14"/>
    <trip id="6020" type="car" depart="1171.30" from="f11" to="d15"/>
    <trip id="2855" type="car" depart="1171.80" from="f5" to="d87"/>
    <trip id="3753" type="car" depart="1173.28" from="f7" to="d36"/>
    <trip id="7838" type="car" depart="1173.28" from="f14" to="d18"/>
    <trip id="1551" type="car" depart="1173.84" from="f3" to="d66"/>
    <trip id="15807" type="car" depart="1176.37" from="-d47" to="d26"/>
    <trip id="14639" type="car" depart="1183.35" from="-d9" to="d87"/>
    <trip id="9455" type="car" depart="1184.62" from="f16" to="d83"/>
    <trip id="5118" type="car" depart="1185.20" from="f9" to="d66"/>
    <trip id="11426" type="car" depart="1185.76" from="f20" to="d12"/>
    <trip id="1870" type="car" depart="1189.12" from="f4" to="d19"/>
    <trip id="9847" type="car" depart="1191.00" from="f17" to="d50"/>
    <trip id="9522" type="car" depart="1191.19" from="f16" to="d94"/>
    <trip id="3000" type="car" depart="1192.39" from="f6" to="d11"/>
    <trip id="5087" type="car" depart="1194.74" from="f9" to="d61"/>
    <trip id="4523" type="car" depart="1198.38" from="f8" to="d63"/>
    <trip id="2879" type="car" depart="1203.16" from="f5" to="d90"/>
    <trip id="4692" type="car" depart="1210.22" from="f8" to="d94"/>
    <trip id="10559" type="car" depart="1212.51" from="f18" to="d67"/>
    <trip id="5023" type="car" depart="1212.68" from="f9" to="d49"/>
    <trip id="6786" type="car" depart="1213.82" from="f12" to="d44"/>
    <trip id="2851" type="car" depart="1222.93" from="f5" to="d86"/>
    <trip id="12378" type="car" depart="1227.45" from="f21" to="d69"/>
    <trip id="15094" type="car" depart="1228.32" from="-d24" to="d26"/>
    <trip id="12047" type="car" depart="1230.20" from="f21" to="d15"/>
    <trip id="17021" type="car" depart="1232.15" from="-d84" to="d31"/>
    <trip id="1851" type="car" depart="1233.30" from="f4" to="d16"/>
    <trip id="13395" type="car" depart="1233.56" from="f23" to="d36"/>
    <trip id="13125" type="car" depart="1235.72" from="f22" to="d92"/>
    <trip id="15158" type="car" depart="1236.48" from="-d26" to="d29"/>
    <trip id="1549" type="car" depart="1236.65" from="f3" to="d65"/>
    <trip id="2620" type="car" depart="1240.08" from="f5" to="d45"/>
    <trip id="11957" type="car" depart="1240.56" from="f20" to="d99"/>
    <trip id="14959" type="car" depart="1246.67" from="-d19" to="d91"/>
    <trip id="12715" type="car" depart="1247.99" from="f22" to="d25"/>
    <trip id="16584" type="car" depart="1248.71" from="-d70" to="d100"/>
    <trip id="2885" type="car" depart="1259.29" from="f5" to="d91"/>
    <trip id="4328" type="car" depart="1268.30" from="f8" to="d29"/>
    <trip id="15443" type="car" depart="1269.36" from="-d35" to="d43"/>
    <trip id="3410" type="car" depart="1269.44" from="f6" to="d78"/>
    <trip id="17396" type="car" depart="1271.11" from="-d95" to="d87"/>
    <trip id="7235" type="car" depart="1271.48" from="f13" to="d19"/>
    <trip id="517" type="car" depart="1272.79" from="f1" to="d90"/>
    <trip id="3784" type="car" depart="1279.64" from="f7" to="d41"/>
    <trip id="1083" type="car" depart="1280.70" from="f2" to="d85"/>
    <trip id="6111" type="car" depart="1282.52" from="f11" to="d31"/>
    <trip id="11317" type="car" depart="1285.58" from="f19" to="d94"/>
    <trip id="4954" type="car" depart="1291.86" from="f9" to="d36"/>
    <trip id="6269" type="car" depart="1295.89" from="f11" to="d59"/>
    <trip id="12347" type="car" depart="1298.98" from="f21" to="d64"/>
    <trip id="15787" type="car" depart="1300.59" from="-d46" to="d54"/>
    <trip id="3614" type="car" depart="1308.27" from="f7" to="d14"/>
    <trip id="9943" type="car" depart="1318.58" from="f17" to="d65"/>
    <trip id="4860" type="car" depart="1323.80" from="f9" to="d21"/>
    <trip id="8240" type="car" depart="1324.71" from="f14" to="d84"/>
    <trip id="12649" type="car" depart="1326.03" from="f22" to="d15"/>
    <trip id="8266" type="car" depart="1328.08" from="f14" to="d88"/>
    <trip id="11112" type="car" depart="1328.30" from="f19" to="d60"/>
    <trip id="1780" type="car" depart="1334.37" from="f4" to="d3"/>
    <trip id="15262" type="car" depart="1337.08" from="-d29" to="d52"/>
    <trip id="11583" type="car" depart="1343.26" from="f20" to="d38"/>
    <trip id="1437" type="car" depart="1344.28" from="f3" to="d45"/>
    <trip id="963" type="car" depart="1349.00" from="f2" to="d65"/>
    <trip id="3252" type="car" depart="1349.82" from="f6" to="d51"/>
    <trip id="13248" type="car" depart="1351.68" from="f23" to="d13"/>
    <trip id="4452" type="car" depart="1358.38" from="f8" to="d50"/>
    <trip id="10243" type="car" depart="1360.35" from="f18" to="d13"/>
    <trip id="12790" type="car" depart="1360.41" from="f22" to="d37"/>
    <trip id="11698" type="car" depart="1363.53" from="f20" to="d56"/>
    <trip id="14615" type="car" depart="1363.72" from="-d8" to="d94"/>
    <trip id="14399" type="car" depart="1367.12" from="-d2" to="d4"/>
    <trip id="6001" type="car" depart="1367.17" from="f11" to="d12"/>
    <trip id="9047" type="car" depart="1369.17" from="f16" to="d14"/>
    <trip id="12076" type="car" depart="1370.67" from="f21" to="d20"/>
    <trip id="9893" type="car" depart="1372.52" from="f17" to="d58"/>
    <trip id="4173" type="car" depart="1378.87" from="f8" to="d5"/>
    <trip id="4924" type="car" depart="1380.45" from="f9" to="d32"/>
    <trip id="7791" type="car" depart="1385.18" from="f14" to="d9"/>
    <trip id="15379" type="car" depart="1386.81" from="-d33" to="d18"/>
    <trip id="10001" type="car" depart="1389.37" from="f17" to="d74"/>
    <trip id="10496" type="car" depart="1395.44" from="f18" to="d56"/>
    <trip id="16173" type="car" depart="1398.48" from="-d59" to="d23"/>
    <trip id="4433" type="car" depart="1399.02" from="f8" to="d47"/>
    <trip id="9523" type="car" depart="1405.12" from="f16" to="d94"/>
    <trip id="9971" type="car" depart="1407.12" from="f17" to="d70"/>
    <trip id="698" type="car" depart="1407.36" from="f2" to="d19"/>
    <trip id="102" type="car" depart="1414.08" from="f1" to="d20"/>
    <trip id="11929" type="car" depart="1414.50" from="f20" to="d94"/>
    <trip id="13678" type="car" depart="1422.61" from="f23" to="d85"/>
    <trip id="13165" type="car" depart="1424.84" from="f22" to="d99"/>
    <trip id="9482" type="car" depart="1426.84" from="f16" to="d87"/>
    <trip id="3607" type="car" depart="1428.40" from="f7" to="d13"/>
    <trip id="7453" type="car" depart="1428.79" from="f13" to="d54"/>
    <trip id="2894" type="car" depart="1429.34" from="f5" to="d93"/>
    <trip id="10654" type="car" depart="1432.55" from="f18" to="d82"/>
    <trip id="12672" type="car" depart="1435.18" from="f22" to="d19"/>
    <trip id="4549" type="car" depart="1437.67" from="f8" to="d68"/>
    <trip id="10974" type="car" depart="1441.66" from="f19" to="d36"/>
    <trip id="8872" type="car" depart="1444.77" from="f15" to="d87"/>
    <trip id="1719" type="car" depart="1445.93" from="f3" to="d93"/>
    <trip id="6637" type="car" depart="1446.96" from="f12" to="d20"/>
    <trip id="1836" type="car" depart="1447.55" from="f4" to="d13"/>
    <trip id="1933" type="car" depart="1449.14" from="f4" to="d29"/>
    <trip id="6051" type="car" depart="1450.00" from="f11" to="d21"/>
    <trip id="11719" type="car" depart="1450.19" from="f20" to="d60"/>
    <trip id="8870" type="car" depart="1453.03" from="f15" to="d87"/>
    <trip id="3627" type="car" depart="1461.60" from="f7" to="d16"/>
    <trip id="8808" type="car" depart="1465.67" from="f15" to="d77"/>
    <trip id="1015" type="car" depart="1473.03" from="f2" to="d73"/>
    <trip id="2854" type="car" depart="1474.79" from="f5" to="d86"/>
    <trip id="10595" type="car" depart="1475.28" from="f18" to="d73"/>
    <trip id="12964" type="car" depart="1475.33" from="f22" to="d66"/>
    <trip id="5746" type="car" depart="1478.70" from="f10" to="d71"/>
    <trip id="14458" type="car" depart="1480.55" from="-d4" to="d16"/>
    <trip id="1192" type="car" depart="1482.79" from="f3" to="d4"/>
    <trip id="2526" type="car" depart="1483.54" from="f5" to="d28"/>
    <trip id="347" type="car" depart="1484.12" from="f1" to="d60"/>
    <trip id="5201" type="car" depart="1485.16" from="f9" to="d80"/>
    <trip id="15287" type="car" depart="1485.34" from="-d30" to="d17"/>
    <trip id="105" type="car" depart="1486.90" from="f1" to="d20"/>
    <trip id="3659" type="car" depart="1490.20" from="f7" to="d21"/>
    <trip id="3785" type="car" depart="1493.86" from="f7" to="d41"/>
    <trip id="9777" type="car" depart="1494.54" from="f17" to="d38"/>
    <trip id="10764" type="car" depart="1496.80" from="f19" to="d1"/>
    <trip id="15119" type="car" depart="1498.65" from="-d24" to="d90"/>
    <trip id="11944" type="car" depart="1499.03" from="f20" to="d96"/>
    <trip id="15052" type="car" depart="1499.16" from="-d23" to="d3"/>
    <trip id="7296" type="car" depart="1500.50" from="f13" to="d28"/>
    <trip id="5478" type="car" depart="1501.48" from="f10" to="d25"/>
    <trip id="15659" type="car" depart="1502.10" from="-d42" to="d65"/>
    <trip id="1536" type="car" depart="1503.58" from="f3" to="d63"/>
    <trip id="9015" type="car" depart="1504.98" from="f16" to="d9"/>
    <trip id="248" type="car" depart="1505.90" from="f1" to="d43"/>
    <trip id="6732" type="car" depart="1506.63" from="f12" to="d35"/>
    <trip id="16736" type="car" depart="1507.30" from="-d75" to="d18"/>
    <trip id="7554" type="car" depart="1509.50" from="f13" to="d71"/>
    <trip id="7726" type="car" depart="1512.02" from="f13" to="d98"/>
    <trip id="17512" type="car" depart="1512.18" from="-d99" to="d54"/>
    <trip id="2749" type="car" depart="1512.68" from="f5" to="d68"/>
    <trip id="4161" type="car" depart="1515.69" from="f8" to="d3"/>
    <trip id="14908" type="car" depart="1516.57" from="-d18" to="d26"/>
    <trip id="14579" type="car" depart="1517.07" from="-d7" to="d87"/>
    <trip id="9400" type="car" depart="1518.99" from="f16" to="d73"/>
    <trip id="9955" type="car" depart="1525.76" from="f17" to="d67"/>
    <trip id="3642" type="car" depart="1527.71" from="f7" to="d19"/>
    <trip id="16229" type="car" depart="1528.82" from="-d60" to="d95"/>
    <trip id="12459" type="car" depart="1530.19" from="f21" to="d83"/>
    <trip id="9856" type="car" depart="1530.48" from="f17" to="d51"/>
    <trip id="13429" type="car" depart="1532.42" from="f23" to="d42"/>
    <trip id="11111" type="car" depart="1534.57" from="f19" to="d60"/>
    <trip id="8111" type="car" depart="1535.25" from="f14" to="d63"/>
    <trip id="9951" type="car" depart="1537.90" from="f17" to="d67"/>
    <trip id="15924" type="car" depart="1540.11" from="-d51" to="d59"/>
    <trip id="5525" type="car" depart="1541.47" from="f10" to="d34"/>
    <trip id="15210" type="car" depart="1545.05" from="-d27" to="d77"/>
    <trip id="14978" type="car" depart="1546.01" from="-d20" to="d46"/>
    <trip id="11936" type="car" depart="1546.08" from="f20" to="d95"/>
    <trip id="8954" type="car" depart="1549.95" from="f15" to="d99"/>
    <trip id="301" type="car" depart="1550.84" from="f1" to="d53"/>
    <trip id="13911" type="car" depart="1552.20" from="f24" to="d27"/>
    <trip id="386" type="car" depart="1552.25" from="f1" to="d67"/>
    <trip id="13136" type="car" depart="1552.29" from="f22" to="d94"/>
    <trip id="15682" type="car" depart="1553.02" from="-d43" to="d32"/>
    <trip id="10702" type="car" depart="1553.41" from="f18" to="d91"/>
    <trip id="10115" type="car" depart="1557.51" from="f17" to="d93"/>
    <trip id="3695" type="car" depart="1559.14" from="f7" to="d28"/>
    <trip id="2049" type="car" depart="1559.77" from="f4" to="d48"/>
    <trip id="8877" type="car" depart="1559.82" from="f15" to="d87"/>
    <trip id="7843" type="car" depart="1559.88" from="f14" to="d18"/>
    <trip id="2458" type="car" depart="1560.24" from="f5" to="d16"/>
    <trip id="2066" type="car" depart="1560.51" from="f4" to="d51"/>
    <trip id="12093" type="car" depart="1562.09" from="f21" to="d22"/>
    <trip id="1556" type="car" depart="1562.57" from="f3" to="d66"/>
    <trip id="10737" type="car" depart="1563.23" from="f18" to="d97"/>
    <trip id="12582" type="car" depart="1564.91" from="f22" to="d4"/>
    <trip id="5972" type="car" depart="1566.35" from="f11" to="d7"/>
    <trip id="6422" type="car" depart="1567.08" from="f11" to="d84"/>
    <trip id="13931" type="car" depart="1567.69" from="f24" to="d31"/>
    <trip id="1869" type="car" depart="1567.78" from="f4" to="d19"/>
    <trip id="5994" type="car" depart="1570.56" from="f11" to="d11"/>
    <trip id="8421" type="car" depart="1572.57" from="f15" to="d14"/>
    <trip id="14275" type="car" depart="1573.27" from="f24" to="d86"/>
    <trip id="10215" type="car" depart="1575.03" from="f18" to="d9"/>
    <trip id="17442" type="car" depart="1575.21" from="-d97" to="d39"/>
    <trip id="15372" type="car" depart="1578.22" from="-d32" to="d95"/>
    <trip id="1597" type="car" depart="1578.61" from="f3" to="d73"/>
    <trip id="16656" type="car" depart="1578.65" from="-d72" to="d71"/>
    <trip id="13261" type="car" depart="1580.11" from="f23" to="d16"/>
    <trip id="5429" type="car" depart="1581.76" from="f10" to="d18"/>
    <trip id="16642" type="car" depart="1583.04" from="-d72" to="d29"/>
    <trip id="16194" type="car" depart="1583.63" from="-d59" to="d78"/>
    <trip id="1376" type="car" depart="1588.24" from="f3" to="d34"/>
    <trip id="9163" type="car" depart="1589.47" from="f16" to="d34"/>
    <trip id="6486" type="car" depart="1589.49" from="f11" to="d94"/>
    <trip id="13612" type="car" depart="1592.51" from="f23" to="d74"/>
    <trip id="12333" type="car" depart="1593.43" from="f21" to="d61"/>
    <trip id="703" type="car" depart="1599.69" from="f2" to="d20"/>
    <trip id="777" type="car" depart="1600.18" from="f2" to="d33"/>
    <trip id="9472" type="car" depart="1601.69" from="f16" to="d86"/>
    <trip id="6063" type="car" depart="1602.87" from="f11" to="d23"/>
    <trip id="9727" type="car" depart="1604.71" from="f17" to="d29"/>
    <trip id="6714" type="car" depart="1605.92" from="f12" to="d32"/>
    <trip id="8807" type="car" depart="1606.28" from="f15" to="d77"/>
    <trip id="1962" type="car" depart="1606.98" from="f4" to="d34"/>
    <trip id="15950" type="car" depart="1608.67" from="-d52" to="d37"/>
    <trip id="387" type="car" depart="1609.89" from="f1" to="d67"/>
    <trip id="15489" type="car" depart="1610.56" from="-d36" to="d86"/>
    <trip id="13417" type="car" depart="1610.79" from="f23" to="d40"/>
    <trip id="10596" type="car" depart="1611.96" from="f18" to="d73"/>
    <trip id="1793" type="car" depart="1612.21" from="f4" to="d6"/>
    <trip id="15918" type="car" depart="1612.84" from="-d51" to="d46"/>
    <trip id="5243" type="car" depart="1613.34" from="f9" to="d86"/>
    <trip id="16162" type="car" depart="1615.04" from="-d58" to="d80"/>
    <trip id="16971" type="car" depart="1615.83" from="-d82" to="d98"/>
    <trip id="238" type="car" depart="1615.90" from="f1" to="d42"/>
    <trip id="3032" type="car" depart="1615.92" from="f6" to="d16"/>
    <trip id="22" type="car" depart="1617.91" from="f1" to="d4"/>
    <trip id="13275" type="car" depart="1618.33" from="f23" to="d18"/>
    <trip id="5977" type="car" depart="1619.33" from="f11" to="d8"/>
    <trip id="2157" type="car" depart="1620.19" from="f4" to="d66"/>
    <trip id="4113" type="car" depart="1620.51" from="f7" to="d95"/>
    <trip id="6523" type="car" depart="1622.20" from="f12" to="d1"/>
    <trip id="15398" type="car" depart="1623.01" from="-d34" to="d3"/>
    <trip id="17469" type="car" depart="1624.81" from="-d98" to="d28"/>
    <trip id="4140" type="car" depart="1625.33" from="f7" to="d99"/>
    <trip id="3124" type="car" depart="1628.84" from="f6" to="d31"/>
    <trip id="6814" type="car" depart="1631.06" from="f12" to="d49"/>
    <trip id="13792" type="car" depart="1632.06" from="f24" to="d6"/>
    <trip id="12871" type="car" depart="1635.14" from="f22" to="d50"/>
    <trip id="223" type="car" depart="1637.02" from="f1" to="d39"/>
    <trip id="4791" type="car" depart="1637.40" from="f9" to="d10"/>
    <trip id="17228" type="car" depart="1637.74" from="-d90" to="d70"/>
    <trip id="1923" type="car" depart="1640.89" from="f4" to="d28"/>
    <trip id="3933" type="car" depart="1642.03" from="f7" to="d66"/>
    <trip id="11060" type="car" depart="1644.27" from="f19" to="d51"/>
    <trip id="12789" type="car" depart="1644.36" from="f22" to="d36"/>
    <trip id="3900" type="car" depart="1644.68" from="f7" to="d60"/>
    <trip id="4934" type="car" depart="1644.85" from="f9" to="d33"/>
    <trip id="7895" type="car" depart="1651.50" from="f14" to="d26"/>
    <trip id="11968" type="car" depart="1651.76" from="f20" to="d100"/>
    <trip id="8363" type="car" depart="1652.02" from="f15" to="d5"/>
    <trip id="3064" type="car" depart="1656.84" from="f6" to="d21"/>
    <trip id="17081" type="car" depart="1658.12" from="-d86" to="d16"/>
    <trip id="8450" type="car" depart="1658.49" from="f15" to="d19"/>
    <trip id="16031" type="car" depart="1664.38" from="-d54" to="d79"/>
    <trip id="8888" type="car" depart="1665.15" from="f15" to="d89"/>
    <trip id="4656" type="car" depart="1665.82" from="f8" to="d87"/>
    <trip id="5991" type="car" depart="1666.14" from="f11" to="d11"/>
    <trip id="2021" type="car" depart="1666.80" from="f4" to="d44"/>
    <trip id="1992" type="car" depart="1667.58" from="f4" to="d40"/>
    <trip id="823" type="car" depart="1668.38" from="f2" to="d40"/>
    <trip id="3424" type="car" depart="1668.91" from="f6" to="d80"/>
    <trip id="16618" type="car" depart="1669.62" from="-d71" to="d79"/>
    <trip id="14601" type="car" depart="1669.69" from="-d8" to="d42"/>
    <trip id="8589" type="car" depart="1671.51" from="f15" to="d41"/>
    <trip id="17152" type="car" depart="1672.33" from="-d88" to="d71"/>
    <trip id="3256" type="car" depart="1673.55" from="f6" to="d52"/>
    <trip id="13882" type="car" depart="1673.61" from="f24" to="d22"/>
    <trip id="12674" type="car" depart="1675.03" from="f22" to="d19"/>
    <trip id="12369" type="car" depart="1675.32" from="f21" to="d67"/>
    <trip id="1818" type="car" depart="1677.28" from="f4" to="d10"/>
    <trip id="10724" type="car" depart="1678.15" from="f18" to="d95"/>
    <trip id="4939" type="car" depart="1680.55" from="f9" to="d34"/>
    <trip id="16406" type="car" depart="1686.55" from="-d65" to="d89"/>